CM
CE
GW 1 2 3 1 0 3 2 0 0
GW 2 2 3 2 0 3 3 0 0
GW 3 2 3 3 0 2 3 0 0
GW 4 2 2 3 0 1 3 0 0
GW 5 2 1 3 0 0 3 0 0
GW 6 2 0 3 0 0 4 0 0
GW 7 2 0 4 0 1 4 0 0
GW 8 2 1 4 0 2 4 0 0
GW 9 2 2 4 0 3 4 0 0
GW 10 2 3 4 0 4 4 0 0
GW 11 2 4 4 0 4 3 0 0
GW 12 2 4 3 0 4 2 0 0
GW 13 2 4 2 0 4 1 0 0
GW 14 2 4 1 0 4 0 0 0
GW 15 2 4 0 0 3 0 0 0
GW 16 2 3 0 0 2 0 0 0
GW 17 2 2 0 0 1 0 0 0
GW 18 2 1 0 0 1 1 0 0
GW 19 2 1 1 0 2 1 0 0
GW 20 2 2 1 0 2 2 0 0
GW 21 2 2 2 0 1 2 0 0
GW 22 2 1 2 0 0 2 0 0
GW 23 2 0 2 0 0 1 0 0
GW 24 2 0 1 0 0 0 0 0
GW 25 3 0 0 0 -1 0 0 0
GW 26 2 -1 0 0 -1 1 0 0
GW 27 2 -1 1 0 -1 2 0 0
GW 28 2 -1 2 0 -2 2 0 0
GW 29 2 -2 2 0 -3 2 0 0
GW 30 2 -3 2 0 -3 1 0 0
GW 31 2 -3 1 0 -2 1 0 0
GW 32 2 -2 1 0 -2 0 0 0
GW 33 2 -2 0 0 -3 0 0 0
GW 34 2 -3 0 0 -4 0 0 0
GW 35 2 -4 0 0 -5 0 0 0
GW 36 2 -5 0 0 -5 1 0 0
GW 37 2 -5 1 0 -5 2 0 0
GW 38 2 -5 2 0 -5 3 0 0
GW 39 2 -5 3 0 -5 4 0 0
GW 40 2 -5 4 0 -4 4 0 0
GW 41 2 -4 4 0 -3 4 0 0
GW 42 2 -3 4 0 -2 4 0 0
GW 43 2 -2 4 0 -1 4 0 0
GW 44 2 -1 4 0 -1 3 0 0
GW 45 2 -1 3 0 -2 3 0 0
GW 46 2 -2 3 0 -3 3 0 0
GW 47 2 -3 3 0 -4 3 0 0
GW 48 2 -4 3 0 -4 2 0 0
GW 49 2 -4 2 0 -4 1 0 0
GS 0 0 .01
GE 0
EX 0 25 2 0 1 0
LD 5 1 1 2 58000000
LD 5 2 1 2 58000000
LD 5 3 1 2 58000000
LD 5 4 1 2 58000000
LD 5 5 1 2 58000000
LD 5 6 1 2 58000000
LD 5 7 1 2 58000000
LD 5 8 1 2 58000000
LD 5 9 1 2 58000000
LD 5 10 1 2 58000000
LD 5 11 1 2 58000000
LD 5 12 1 2 58000000
LD 5 13 1 2 58000000
LD 5 14 1 2 58000000
LD 5 15 1 2 58000000
LD 5 16 1 2 58000000
LD 5 17 1 2 58000000
LD 5 18 1 2 58000000
LD 5 19 1 2 58000000
LD 5 20 1 2 58000000
LD 5 21 1 2 58000000
LD 5 22 1 2 58000000
LD 5 23 1 2 58000000
LD 5 24 1 2 58000000
LD 5 25 1 3 58000000
LD 5 26 1 2 58000000
LD 5 27 1 2 58000000
LD 5 28 1 2 58000000
LD 5 29 1 2 58000000
LD 5 30 1 2 58000000
LD 5 31 1 2 58000000
LD 5 32 1 2 58000000
LD 5 33 1 2 58000000
LD 5 34 1 2 58000000
LD 5 35 1 2 58000000
LD 5 36 1 2 58000000
LD 5 37 1 2 58000000
LD 5 38 1 2 58000000
LD 5 39 1 2 58000000
LD 5 40 1 2 58000000
LD 5 41 1 2 58000000
LD 5 42 1 2 58000000
LD 5 43 1 2 58000000
LD 5 44 1 2 58000000
LD 5 45 1 2 58000000
LD 5 46 1 2 58000000
LD 5 47 1 2 58000000
LD 5 48 1 2 58000000
LD 5 49 1 2 58000000
FR	0	201	0	0	300	1
RP 0 1 360 1000 89 0 1 1
FR	0	201	0	0	300	1
RP 0 181 1 1000 -90 0 1 1
EN

